This is new project-1
making for NodeMCU c1
new line..
